Version 4
SHEET 1 2740 696
WIRE 1792 -816 1792 -832
WIRE 1840 -816 1792 -816
WIRE 912 -800 912 -832
WIRE 1056 -800 1056 -832
WIRE 1200 -800 1200 -832
WIRE 1840 -800 1840 -816
WIRE 1424 -768 1424 -832
WIRE 1616 -768 1616 -832
WIRE 1264 -512 1184 -512
WIRE 1488 -512 1328 -512
WIRE 1584 -400 1568 -400
WIRE 704 -384 640 -384
WIRE 1184 -384 1184 -512
WIRE 1184 -384 976 -384
WIRE 1920 -384 1904 -384
WIRE 704 -352 704 -384
WIRE 976 -352 976 -384
WIRE 1488 -336 1488 -512
WIRE 1488 -336 1472 -336
WIRE 1568 -336 1568 -400
WIRE 1568 -336 1488 -336
WIRE 1616 -336 1568 -336
WIRE 1904 -288 1904 -384
WIRE 1904 -288 1872 -288
WIRE 1984 -288 1904 -288
WIRE 2176 -288 2144 -288
WIRE 704 -240 704 -272
WIRE 800 -240 704 -240
WIRE 976 -240 976 -272
WIRE 976 -240 864 -240
WIRE 1984 -240 1952 -240
WIRE 1744 -192 1744 -208
WIRE 1952 -192 1952 -240
WIRE 704 -176 704 -240
WIRE 976 -176 976 -240
WIRE 1472 -16 1472 -32
WIRE 704 0 704 -96
WIRE 1360 0 704 0
WIRE 1440 0 1360 0
WIRE 1904 0 1904 -288
WIRE 1904 0 1504 0
WIRE 1472 48 1472 16
FLAG 1424 -768 0
FLAG 1424 -912 phi1
FLAG 1616 -768 0
FLAG 1616 -912 phi2
FLAG 656 -336 phi1
IOPIN 656 -336 In
FLAG 928 -336 phi2
IOPIN 928 -336 In
FLAG 1744 -192 phi2
IOPIN 1744 -192 In
FLAG 976 -96 VCM
IOPIN 976 -96 In
FLAG 1184 -288 VCM
IOPIN 1184 -288 In
FLAG 1616 -240 VCM
IOPIN 1616 -240 In
FLAG 1744 -368 VDD
IOPIN 1744 -368 In
FLAG 1360 0 Vfb
FLAG 640 -384 vin
IOPIN 640 -384 In
FLAG 1952 -192 phi1
IOPIN 1952 -192 In
FLAG 1920 -384 vq
IOPIN 1920 -384 Out
FLAG 2176 -288 vd
IOPIN 2176 -288 Out
FLAG 1584 -400 vx1
IOPIN 1584 -400 Out
FLAG 928 -160 phi1
IOPIN 928 -160 In
FLAG 656 -288 trip
FLAG 656 -112 trip
FLAG 928 -288 trip
FLAG 928 -112 trip
FLAG 1840 -800 0
FLAG 1792 -880 Vdd
FLAG 1840 -896 trip
FLAG 656 -160 phi2
IOPIN 656 -160 In
FLAG 912 -800 0
FLAG 1056 -800 0
FLAG 1056 -912 Vdd
FLAG 1200 -800 0
FLAG 1200 -912 Vcm
FLAG 912 -912 Vin
FLAG 1472 48 0
FLAG 1472 -32 VDD
IOPIN 1472 -32 In
SYMBOL voltage 1424 -928 R0
WINDOW 0 36 42 Left 2
WINDOW 3 -52 207 VLeft 2
WINDOW 123 0 0 Left 0
WINDOW 39 0 0 Left 0
SYMATTR InstName Vphi1
SYMATTR Value PULSE(0 {VDD} 0 100n 100n 2u 4.5u)
SYMBOL cap 1264 -496 R270
WINDOW 0 32 32 VTop 2
WINDOW 3 0 32 VBottom 2
SYMATTR InstName CI1
SYMATTR Value {Ci1}
SYMBOL cap 864 -256 R90
WINDOW 0 0 32 VBottom 2
WINDOW 3 32 32 VTop 2
SYMATTR InstName CS1
SYMATTR Value {Cs1}
SYMBOL voltage 1616 -928 R0
WINDOW 0 36 42 Left 2
WINDOW 3 -52 207 VLeft 2
WINDOW 123 0 0 Left 0
WINDOW 39 0 0 Left 0
SYMATTR InstName Vphi2
SYMATTR Value PULSE(0 {VDD} 2.25u 100n 100n 2u 4.5u)
SYMBOL Ideal_clocked_comparator 1664 -288 R0
SYMATTR InstName X4
SYMBOL op_amp 1232 -336 R0
SYMATTR InstName X1
SYMBOL dflop 2064 -336 R0
SYMATTR InstName A1
SYMBOL sw 704 -256 M180
WINDOW 3 24 -12 Left 2
WINDOW 38 39 37 Left 2
WINDOW 0 35 82 Left 2
SYMATTR Value ""
SYMATTR SpiceModel switch
SYMATTR InstName S1
SYMBOL sw 704 -80 M180
WINDOW 3 24 -12 Left 2
WINDOW 38 39 37 Left 2
WINDOW 0 35 82 Left 2
SYMATTR Value ""
SYMATTR SpiceModel switch
SYMATTR InstName S2
SYMBOL sw 976 -256 M180
WINDOW 3 24 -12 Left 2
WINDOW 38 39 37 Left 2
WINDOW 0 35 82 Left 2
SYMATTR Value ""
SYMATTR SpiceModel switch
SYMATTR InstName S3
SYMBOL sw 976 -80 M180
WINDOW 3 24 -12 Left 2
WINDOW 38 39 37 Left 2
WINDOW 0 35 82 Left 2
SYMATTR Value ""
SYMATTR SpiceModel switch
SYMATTR InstName S4
SYMBOL e 1840 -912 R0
WINDOW 0 39 37 Left 2
WINDOW 3 38 79 Left 2
SYMATTR InstName Etrip1
SYMATTR Value 0.5
SYMBOL voltage 912 -928 R0
WINDOW 123 0 0 Left 2
WINDOW 39 0 0 Left 2
WINDOW 0 -96 20 Left 2
WINDOW 3 -209 104 Left 2
SYMATTR InstName Vin1
SYMATTR Value SINE({Voff} {Vamp} {freq})
SYMBOL voltage 1056 -928 R0
WINDOW 123 0 0 Left 2
WINDOW 39 0 0 Left 2
SYMATTR InstName VDD
SYMATTR Value {VDD}
SYMBOL voltage 1200 -928 R0
WINDOW 123 0 0 Left 2
WINDOW 39 0 0 Left 2
SYMATTR InstName VCM
SYMATTR Value {VCM}
SYMBOL inv 1504 32 M0
SYMATTR InstName X3
TEXT 1400 -696 Left 2 ;Nonoverlapping clocks
TEXT 2144 -712 Left 2 ;10 periods for a better FFT
TEXT 1768 -760 Left 2 ;Switch control
TEXT 1960 -848 Left 2 !.model switch sw ron=.1
TEXT 1976 -712 Left 2 !.tran 40m uic
TEXT 1968 -808 Left 2 !.options plotwinsize=0
TEXT 1960 -1080 Left 2 !.param VDD=3.0\n.param Vcm=VDD/2.0\n.param Voff=Vcm\n.param Vamp=1.4\n.param freq=80\n.param Cs1=0.25p Ci1=1p
TEXT 1976 -656 Left 2 !.save v(vx1) v(phi1) v(phi2) v(vq) v(vd) v(vfb) v(vin)
TEXT 1976 -680 Left 2 ;Save only node voltages of interest
